STAAD SPACE
START JOB INFORMATION
ENGINEER DATE 18-Jun-25
END JOB INFORMATION
INPUT WIDTH 79
UNIT METER KN
JOINT COORDINATES
1 0 0 0; 2 12 0 0; 3 0 0 15; 4 12 0 15; 5 1 0 1; 6 4.00001 0 1; 7 7.00001 0 1;
8 1 0 3.00001; 9 4.00001 0 3.00001; 10 7.00001 0 3.00001; 11 2.5 0 3.00001;
12 2.5 0 5.00001; 13 1 0 5.00001; 14 1 0 8.00002; 15 2.5 0 8.00002;
16 6.50001 0 8.00002; 17 10.5 0 8.00002; 18 7.00001 0 8.00002; 19 1 0 11;
20 2.5 0 11; 21 6.50001 0 11; 22 10.5 0 11; 23 7.50002 0 11; 24 4.50001 0 11;
25 4.50001 0 12.5; 26 7.50002 0 13; 27 7.50002 0 12.5; 28 10.5 0 13;
29 10.5 0 12; 30 7.50002 0 12; 31 7.50002 2.75001 12; 32 10.5 5.50001 13;
33 8.50002 2.75001 12; 34 7.50002 2.75001 13; 35 7.50002 2.75001 11;
36 8.50002 2.75001 11; 37 8.50002 2.75001 13; 39 10 5.50001 12;
40 10 5.50001 13; 41 10 5.50001 11; 42 10.5 5.50001 11; 43 0 5.50001 0;
44 12 5.50001 0; 45 1 5.50001 1; 46 4.00001 5.50001 1; 47 7.00001 5.50001 1;
48 1 5.50001 3.00001; 49 4.00001 5.50001 3.00001; 50 7.00001 5.50001 3.00001;
51 2.5 5.50001 3.00001; 52 2.5 5.50001 5.00001; 53 1 5.50001 5.00001;
54 1 5.50001 8.00002; 55 2.5 5.50001 8.00002; 56 6.50001 5.50001 8.00002;
57 10.5 5.50001 8.00002; 58 7.00001 5.50001 8.00002; 59 0 5.50001 15;
60 12 5.50001 15; 61 4.50001 5.50001 11; 62 4.50001 5.50001 12.5;
63 1 5.50001 11; 64 2.5 5.50001 11; 65 6.50001 5.50001 11;
66 7.50002 5.50001 12.5; 67 7.50002 5.50001 11; 68 7.50002 5.50001 13;
69 8.50002 0 13; 70 8.50002 0 11; 71 4.00001 10.5 1; 72 4.00001 10.5 3.00001;
73 1 10.5 1; 74 1 10.5 3.00001; 75 1 10.5 8.00002; 76 4.00001 5.50001 8.00002;
# ... 8 like lines cut
MEMBER INCIDENCES
26 31 30; 30 26 34; 31 34 35; 32 23 35; 33 35 36; 34 34 37; 35 36 37; 36 22 36;
37 33 39; 38 40 37; 39 32 42; 40 32 40; 41 40 41; 42 42 41; 43 29 33; 44 28 32;
45 22 42; 46 1 43; 47 5 45; 48 8 48; 49 12 52; 50 14 54; 51 3 59; 52 6 46;
53 16 56; 54 2 44; 55 7 47; 56 24 61; 57 43 44; 58 60 44; 59 4 60; 60 59 60;
61 59 43; 62 45 100; 63 45 53; 64 52 51; 65 51 50; 66 50 47; 67 48 51;
68 49 46; 69 58 50; 70 54 53; 71 52 53; 72 54 76; 73 42 57; 74 13 53; 75 11 51;
76 15 55; 77 10 50; 78 9 49; 79 25 62; 80 62 61; 81 18 58; 82 19 63; 83 20 64;
84 63 54; 85 64 55; 86 63 61; 87 65 56; 88 21 65; 89 61 65; 90 66 62; 91 17 57;
92 27 66; 93 65 67; 94 67 42; 95 66 67; 96 35 67; 97 69 37; 98 68 66; 99 68 40;
100 70 36; 101 75 73; 102 72 71; 103 73 85; 104 54 75; 105 45 73; 106 72 84;
107 48 79; 108 46 71; 109 49 72; 110 76 57; 111 49 76; 112 78 76; 113 76 77;
114 77 72; 115 75 83; 116 79 74; 117 51 80; 118 79 80; 119 82 80; 120 81 79;
121 81 82; 122 81 75; 123 83 77; 124 82 83; 125 83 55; 126 84 74; 127 51 84;
128 85 71; 129 84 85; 130 86 89; 131 88 89; 132 87 86; 133 88 87; 134 74 87;
135 85 89; 136 84 88; 137 73 86; 138 90 101; 139 91 90; 140 83 93; 141 75 92;
142 93 92; 143 42 95; 144 94 95; 145 41 94; 146 96 99; 147 99 98; 148 98 94;
149 96 95; 150 67 98; 151 68 99; 152 32 96; 153 40 97; 154 100 90; 155 101 47;
156 90 85;
DEFINE MATERIAL START
ISOTROPIC STEEL
E 1.99947e+08
POISSON 0.3
DENSITY 76.8191
ALPHA 6.5e-06
DAMP 0.03
G 7.7221e+07
TYPE STEEL
STRENGTH RY 1.5 RT 1.2
END DEFINE MATERIAL
MEMBER PROPERTY 'INDIA (IS 2023).DB3'
31 33 TO 35 39 TO 42 57 60 TO 73 80 84 TO 87 89 90 93 TO 95 98 99 110 111 -
118 121 138 154 155 TABLE 'IS BEAM' ST 'ISMB 300'
101 TO 103 106 114 115 123 126 128 129 144 146 TO 148 -
149 TABLE 'IS BEAM' ST 'ISMB 200'
130 TO 133 142 TABLE 'IS BEAM' ST 'ISWB 350'
26 30 32 36 TO 38 43 TO 56 59 74 TO 79 81 TO 83 88 91 92 96 97 100 107 -
112 TABLE 'IS COLUMN' ST 'ISSC 200'
104 105 108 109 113 116 117 119 120 122 124 125 127 139 143 145 150 TO 153 -
156 TABLE 'IS COLUMN' ST 'ISSC 250'
134 TO 137 140 141 TABLE 'IS COLUMN' ST 'ISHB 400'
58 TABLE 'IS BEAM' ST 'ISMB 300'
CONSTANTS
MATERIAL STEEL ALL
SUPPORTS
1 TO 30 69 70 78 91 FIXED
LOAD 1 LOADTYPE Dead  TITLE DEAD LOAD
SELFWEIGHT Y -1.5 
FLOOR LOAD
YRANGE 3 6 FLOAD -3 GY
YRANGE 6 12 FLOAD -2.5 GY
MEMBER LOAD
39 TO 42 58 60 61 64 69 TO 73 80 84 TO 87 89 90 93 TO 95 98 99 101 TO 103 -
106 110 111 114 115 123 126 128 129 144 146 TO 149 UNI GY -6.2
PERFORM ANALYSIS
PERFORM ANALYSIS
PARAMETER 1
CODE IS800 WSD
KZ 1 ALL
PARAMETER 2
CODE IS800 WSD
PARAMETER 3
CODE IS800 WSD
FIXED GROUP
PARAMETER 4
CODE IS800 WSD
SELECT OPTIMIZED
PARAMETER 5
CODE IS800 WSD
STEEL TAKE OFF ALL
FINISH
